*Heading
** Job name: Job-RC-Column Model name: Model-1
** Generated by: Abaqus/CAE 2017
*Preprint, echo=NO, model=NO, history=NO, contact=NO
**
** PARTS
**
*Part, name=Bar
*Node
      1,           0.,           0.,           0.
      2,          40.,           0.,           0.
      3,          80.,           0.,           0.
      4,         120.,           0.,           0.
      5,         160.,           0.,           0.
      6,         200.,           0.,           0.
      7,         240.,           0.,           0.
      8,         280.,           0.,           0.
      9,         320.,           0.,           0.
     10,         360.,           0.,           0.
     11,         400.,           0.,           0.
     12,         440.,           0.,           0.
     13,         480.,           0.,           0.
     14,         520.,           0.,           0.
     15,         560.,           0.,           0.
     16,         600.,           0.,           0.
     17,         640.,           0.,           0.
     18,         680.,           0.,           0.
     19,         720.,           0.,           0.
     20,         760.,           0.,           0.
** ... 31 like lines cut
*Element, type=T3D2
 1,  1,  2
 2,  2,  3
 3,  3,  4
 4,  4,  5
 5,  5,  6
 6,  6,  7
 7,  7,  8
 8,  8,  9
 9,  9, 10
10, 10, 11
11, 11, 12
12, 12, 13
13, 13, 14
14, 14, 15
15, 15, 16
16, 16, 17
17, 17, 18
18, 18, 19
19, 19, 20
20, 20, 21
** ... 30 like lines cut
*Nset, nset=_PickedSet2, internal, generate
  1,  51,   1
*Elset, elset=_PickedSet2, internal, generate
  1,  50,   1
** Section: Section-Stirrup
*Solid Section, elset=_PickedSet2, material=Steel
78.54,
*End Part
**  
*Part, name=Concrete
*Node
      1,         300.,         300.,        2000.
      2,         300.,        262.5,        2000.
      3,         300.,         225.,        2000.
      4,         300.,        187.5,        2000.
      5,         300.,         150.,        2000.
      6,         300.,        112.5,        2000.
      7,         300.,          75.,        2000.
      8,         300.,         37.5,        2000.
      9,         300.,           0.,        2000.
     10,         300.,         300.,        1960.
     11,         300.,        262.5,        1960.
     12,         300.,         225.,        1960.
     13,         300.,        187.5,        1960.
     14,         300.,         150.,        1960.
     15,         300.,        112.5,        1960.
     16,         300.,          75.,        1960.
     17,         300.,         37.5,        1960.
     18,         300.,           0.,        1960.
     19,         300.,         300.,        1920.
     20,         300.,        262.5,        1920.
** ... 4111 like lines cut
*Element, type=C3D8R
   1,  460,  461,  470,  469,    1,    2,   11,   10
   2,  461,  462,  471,  470,    2,    3,   12,   11
   3,  462,  463,  472,  471,    3,    4,   13,   12
   4,  463,  464,  473,  472,    4,    5,   14,   13
   5,  464,  465,  474,  473,    5,    6,   15,   14
   6,  465,  466,  475,  474,    6,    7,   16,   15
   7,  466,  467,  476,  475,    7,    8,   17,   16
   8,  467,  468,  477,  476,    8,    9,   18,   17
   9,  469,  470,  479,  478,   10,   11,   20,   19
  10,  470,  471,  480,  479,   11,   12,   21,   20
  11,  471,  472,  481,  480,   12,   13,   22,   21
  12,  472,  473,  482,  481,   13,   14,   23,   22
  13,  473,  474,  483,  482,   14,   15,   24,   23
  14,  474,  475,  484,  483,   15,   16,   25,   24
  15,  475,  476,  485,  484,   16,   17,   26,   25
  16,  476,  477,  486,  485,   17,   18,   27,   26
  17,  478,  479,  488,  487,   19,   20,   29,   28
  18,  479,  480,  489,  488,   20,   21,   30,   29
  19,  480,  481,  490,  489,   21,   22,   31,   30
  20,  481,  482,  491,  490,   22,   23,   32,   31
** ... 3180 like lines cut
*Nset, nset=_PickedSet2, internal, generate
    1,  4131,     1
*Elset, elset=_PickedSet2, internal, generate
    1,  3200,     1
** Section: Section-Concrete
*Solid Section, elset=_PickedSet2, material=Concrete
,
*End Part
**  
*Part, name=Stirrup
*Node
      1,           0.,           0.,           0.
      2,           0.,         240.,           0.
      3,         240.,         240.,           0.
      4,         240.,           0.,           0.
      5,           0.,         200.,           0.
      6,           0.,         160.,           0.
      7,           0.,         120.,           0.
      8,           0.,          80.,           0.
      9,           0.,          40.,           0.
     10,         200.,         240.,           0.
     11,         160.,         240.,           0.
     12,         120.,         240.,           0.
     13,          80.,         240.,           0.
     14,          40.,         240.,           0.
     15,         240.,          40.,           0.
     16,         240.,          80.,           0.
     17,         240.,         120.,           0.
     18,         240.,         160.,           0.
     19,         240.,         200.,           0.
     20,          40.,           0.,           0.
** ... 4 like lines cut
*Element, type=T3D2
1, 2, 5
2, 5, 6
3, 6, 7
4, 7, 8
5, 8, 9
6, 9, 1
 7,  3, 10
 8, 10, 11
 9, 11, 12
10, 12, 13
11, 13, 14
12, 14,  2
13,  4, 15
14, 15, 16
15, 16, 17
16, 17, 18
17, 18, 19
18, 19,  3
19,  1, 20
20, 20, 21
** ... 4 like lines cut
*Nset, nset=_PickedSet2, internal, generate
  1,  24,   1
*Elset, elset=_PickedSet2, internal, generate
  1,  24,   1
** Section: Section-Stirrup
*Solid Section, elset=_PickedSet2, material=Steel
78.54,
*End Part
**  
**
** ASSEMBLY
**
*Assembly, name=Assembly
**  
*Instance, name=Concrete-1, part=Concrete
*End Instance
**  
*Instance, name=Bar-1, part=Bar
        62.5,        237.5,        2000.
        62.5,        237.5,        2000.,         62.5,        238.5,        2000.,          90.
*End Instance
**  
*Instance, name=Bar-2, part=Bar
        150.,        238.5,        2000.
        150.,        238.5,        2000.,         150.,        239.5,        2000.,          90.
*End Instance
**  
*Instance, name=Bar-3, part=Bar
        62.5,         150.,        2000.
        62.5,         150.,        2000.,         62.5,         151.,        2000.,          90.
*End Instance
**  
*Instance, name=Bar-4, part=Bar
        62.5,         62.5,        2000.
        62.5,         62.5,        2000.,         62.5,         63.5,        2000.,          90.
*End Instance
**  
*Instance, name=Bar-5, part=Bar
        150.,         62.5,        2000.
        150.,         62.5,        2000.,         150.,         63.5,        2000.,          90.
*End Instance
**  
*Instance, name=Bar-6, part=Bar
       237.5,         62.5,        2000.
       237.5,         62.5,        2000.,        237.5,         63.5,        2000.,          90.
*End Instance
**  
*Instance, name=Bar-7, part=Bar
       237.5,         150.,        2000.
       237.5,         150.,        2000.,        237.5,         151.,        2000.,          90.
*End Instance
**  
*Instance, name=Bar-8, part=Bar
       237.5,        237.5,        2000.
       237.5,        237.5,        2000.,        237.5,        238.5,        2000.,          90.
*End Instance
**  
*Instance, name=Stirrup-1, part=Stirrup
         30.,          30.,        1950.
*End Instance
**  
*Instance, name=Stirrup-1-lin-1-2, part=Stirrup
         30.,          30.,        1760.
*End Instance
**  
*Instance, name=Stirrup-1-lin-1-3, part=Stirrup
         30.,          30.,        1570.
*End Instance
**  
*Instance, name=Stirrup-1-lin-1-4, part=Stirrup
         30.,          30.,        1380.
*End Instance
**  
*Instance, name=Stirrup-1-lin-1-5, part=Stirrup
         30.,          30.,        1190.
*End Instance
**  
*Instance, name=Stirrup-1-lin-1-6, part=Stirrup
         30.,          30.,        1000.
*End Instance
**  
*Instance, name=Stirrup-1-lin-1-7, part=Stirrup
         30.,          30.,         810.
*End Instance
**  
*Instance, name=Stirrup-1-lin-1-8, part=Stirrup
         30.,          30.,         620.
*End Instance
**  
*Instance, name=Stirrup-1-lin-1-9, part=Stirrup
         30.,          30.,         430.
*End Instance
**  
*Instance, name=Stirrup-1-lin-1-10, part=Stirrup
         30.,          30.,         240.
*End Instance
**  
*Instance, name=Stirrup-1-lin-1-11, part=Stirrup
         30.,          30.,          50.
*End Instance
**  
*Nset, nset=RF2, instance=Concrete-1
    1,    2,    3,    4,    5,    6,    7,    8,    9,  460,  461,  462,  463,  464,  465,  466
  467,  468,  919,  920,  921,  922,  923,  924,  925,  926,  927, 1378, 1379, 1380, 1381, 1382
 1383, 1384, 1385, 1386, 1837, 1838, 1839, 1840, 1841, 1842, 1843, 1844, 1845, 2296, 2297, 2298
 2299, 2300, 2301, 2302, 2303, 2304, 2755, 2756, 2757, 2758, 2759, 2760, 2761, 2762, 2763, 3214
 3215, 3216, 3217, 3218, 3219, 3220, 3221, 3222, 3673, 3674, 3675, 3676, 3677, 3678, 3679, 3680
 3681,
*Elset, elset=RF2, instance=Concrete-1
    1,    2,    3,    4,    5,    6,    7,    8,  401,  402,  403,  404,  405,  406,  407,  408
  801,  802,  803,  804,  805,  806,  807,  808, 1201, 1202, 1203, 1204, 1205, 1206, 1207, 1208
 1601, 1602, 1603, 1604, 1605, 1606, 1607, 1608, 2001, 2002, 2003, 2004, 2005, 2006, 2007, 2008
 2401, 2402, 2403, 2404, 2405, 2406, 2407, 2408, 2801, 2802, 2803, 2804, 2805, 2806, 2807, 2808
*Nset, nset=U2, instance=Concrete-1
  459, 4123
*Nset, nset=_PickedSet52, internal, instance=Concrete-1
    1,    2,    3,    4,    5,    6,    7,    8,    9,  460,  461,  462,  463,  464,  465,  466
  467,  468,  919,  920,  921,  922,  923,  924,  925,  926,  927, 1378, 1379, 1380, 1381, 1382
 1383, 1384, 1385, 1386, 1837, 1838, 1839, 1840, 1841, 1842, 1843, 1844, 1845, 2296, 2297, 2298
 2299, 2300, 2301, 2302, 2303, 2304, 2755, 2756, 2757, 2758, 2759, 2760, 2761, 2762, 2763, 3214
 3215, 3216, 3217, 3218, 3219, 3220, 3221, 3222, 3673, 3674, 3675, 3676, 3677, 3678, 3679, 3680
 3681,
*Elset, elset=_PickedSet52, internal, instance=Concrete-1
    1,    2,    3,    4,    5,    6,    7,    8,  401,  402,  403,  404,  405,  406,  407,  408
  801,  802,  803,  804,  805,  806,  807,  808, 1201, 1202, 1203, 1204, 1205, 1206, 1207, 1208
 1601, 1602, 1603, 1604, 1605, 1606, 1607, 1608, 2001, 2002, 2003, 2004, 2005, 2006, 2007, 2008
 2401, 2402, 2403, 2404, 2405, 2406, 2407, 2408, 2801, 2802, 2803, 2804, 2805, 2806, 2807, 2808
*Nset, nset=_PickedSet57, internal, instance=Bar-1, generate
  1,  51,   1
*Nset, nset=_PickedSet57, internal, instance=Bar-2, generate
  1,  51,   1
*Nset, nset=_PickedSet57, internal, instance=Bar-3, generate
  1,  51,   1
*Nset, nset=_PickedSet57, internal, instance=Bar-7, generate
  1,  51,   1
*Nset, nset=_PickedSet57, internal, instance=Stirrup-1-lin-1-3, generate
  1,  24,   1
*Nset, nset=_PickedSet57, internal, instance=Stirrup-1-lin-1-11, generate
  1,  24,   1
*Nset, nset=_PickedSet57, internal, instance=Stirrup-1-lin-1-7, generate
  1,  24,   1
*Nset, nset=_PickedSet57, internal, instance=Bar-5, generate
  1,  51,   1
*Nset, nset=_PickedSet57, internal, instance=Stirrup-1-lin-1-5, generate
  1,  24,   1
*Nset, nset=_PickedSet57, internal, instance=Stirrup-1, generate
  1,  24,   1
*Nset, nset=_PickedSet57, internal, instance=Stirrup-1-lin-1-9, generate
  1,  24,   1
*Nset, nset=_PickedSet57, internal, instance=Bar-4, generate
  1,  51,   1
*Nset, nset=_PickedSet57, internal, instance=Bar-8, generate
  1,  51,   1
*Nset, nset=_PickedSet57, internal, instance=Stirrup-1-lin-1-4, generate
  1,  24,   1
*Nset, nset=_PickedSet57, internal, instance=Stirrup-1-lin-1-8, generate
  1,  24,   1
*Nset, nset=_PickedSet57, internal, instance=Bar-6, generate
  1,  51,   1
*Nset, nset=_PickedSet57, internal, instance=Stirrup-1-lin-1-6, generate
  1,  24,   1
*Nset, nset=_PickedSet57, internal, instance=Stirrup-1-lin-1-2, generate
  1,  24,   1
*Nset, nset=_PickedSet57, internal, instance=Stirrup-1-lin-1-10, generate
  1,  24,   1
*Elset, elset=_PickedSet57, internal, instance=Bar-1, generate
  1,  50,   1
*Elset, elset=_PickedSet57, internal, instance=Bar-2, generate
  1,  50,   1
*Elset, elset=_PickedSet57, internal, instance=Bar-3, generate
  1,  50,   1
*Elset, elset=_PickedSet57, internal, instance=Bar-7, generate
  1,  50,   1
*Elset, elset=_PickedSet57, internal, instance=Stirrup-1-lin-1-3, generate
  1,  24,   1
*Elset, elset=_PickedSet57, internal, instance=Stirrup-1-lin-1-11, generate
  1,  24,   1
*Elset, elset=_PickedSet57, internal, instance=Stirrup-1-lin-1-7, generate
  1,  24,   1
*Elset, elset=_PickedSet57, internal, instance=Bar-5, generate
  1,  50,   1
*Elset, elset=_PickedSet57, internal, instance=Stirrup-1-lin-1-5, generate
  1,  24,   1
*Elset, elset=_PickedSet57, internal, instance=Stirrup-1, generate
  1,  24,   1
*Elset, elset=_PickedSet57, internal, instance=Stirrup-1-lin-1-9, generate
  1,  24,   1
*Elset, elset=_PickedSet57, internal, instance=Bar-4, generate
  1,  50,   1
*Elset, elset=_PickedSet57, internal, instance=Bar-8, generate
  1,  50,   1
*Elset, elset=_PickedSet57, internal, instance=Stirrup-1-lin-1-4, generate
  1,  24,   1
*Elset, elset=_PickedSet57, internal, instance=Stirrup-1-lin-1-8, generate
  1,  24,   1
*Elset, elset=_PickedSet57, internal, instance=Bar-6, generate
  1,  50,   1
*Elset, elset=_PickedSet57, internal, instance=Stirrup-1-lin-1-6, generate
  1,  24,   1
*Elset, elset=_PickedSet57, internal, instance=Stirrup-1-lin-1-2, generate
  1,  24,   1
*Elset, elset=_PickedSet57, internal, instance=Stirrup-1-lin-1-10, generate
  1,  24,   1
*Nset, nset=_PickedSet58, internal, instance=Concrete-1, generate
    1,  4131,     1
*Elset, elset=_PickedSet58, internal, instance=Concrete-1, generate
    1,  3200,     1
*Nset, nset=_PickedSet59, internal, instance=Concrete-1
  451,  452,  453,  454,  455,  456,  457,  458,  459,  910,  911,  912,  913,  914,  915,  916
  917,  918, 1369, 1370, 1371, 1372, 1373, 1374, 1375, 1376, 1377, 1828, 1829, 1830, 1831, 1832
 1833, 1834, 1835, 1836, 2287, 2288, 2289, 2290, 2291, 2292, 2293, 2294, 2295, 2746, 2747, 2748
 2749, 2750, 2751, 2752, 2753, 2754, 3205, 3206, 3207, 3208, 3209, 3210, 3211, 3212, 3213, 3664
 3665, 3666, 3667, 3668, 3669, 3670, 3671, 3672, 4123, 4124, 4125, 4126, 4127, 4128, 4129, 4130
 4131,
*Elset, elset=_PickedSet59, internal, instance=Concrete-1
  393,  394,  395,  396,  397,  398,  399,  400,  793,  794,  795,  796,  797,  798,  799,  800
 1193, 1194, 1195, 1196, 1197, 1198, 1199, 1200, 1593, 1594, 1595, 1596, 1597, 1598, 1599, 1600
 1993, 1994, 1995, 1996, 1997, 1998, 1999, 2000, 2393, 2394, 2395, 2396, 2397, 2398, 2399, 2400
 2793, 2794, 2795, 2796, 2797, 2798, 2799, 2800, 3193, 3194, 3195, 3196, 3197, 3198, 3199, 3200
*Elset, elset=__PickedSurf53_S5, internal, instance=Concrete-1
  393,  394,  395,  396,  397,  398,  399,  400,  793,  794,  795,  796,  797,  798,  799,  800
 1193, 1194, 1195, 1196, 1197, 1198, 1199, 1200, 1593, 1594, 1595, 1596, 1597, 1598, 1599, 1600
 1993, 1994, 1995, 1996, 1997, 1998, 1999, 2000, 2393, 2394, 2395, 2396, 2397, 2398, 2399, 2400
 2793, 2794, 2795, 2796, 2797, 2798, 2799, 2800, 3193, 3194, 3195, 3196, 3197, 3198, 3199, 3200
*Surface, type=ELEMENT, name=_PickedSurf53, internal
__PickedSurf53_S5, S5
** Constraint: Constraint-1
*Embedded Element, host elset=_PickedSet58
_PickedSet57
*End Assembly
** 
** MATERIALS
** 
*Material, name=Concrete
*Density
 2.4e+06,
*Elastic
17585., 0.17
*Concrete Damaged Plasticity
 30.5,   0.1,  1.16, 0.666, 0.001
*Concrete Compression Hardening
 5.23363,          0.
 6.27766,       8e-05
 7.21148,  0.00011756
 8.03782, 0.000162279
 8.76131, 0.000213877
 9.38799, 0.000271954
 9.92474, 0.000336046
 10.3789, 0.000405661
 10.7581, 0.000480297
 11.0696, 0.000559456
 11.3206, 0.000642662
 11.5179, 0.000729462
 11.6678, 0.000819438
 11.7759, 0.000912203
 11.8476,  0.00100741
 11.8875,  0.00110474
    11.9,   0.0012039
 11.7413,  0.00131452
 11.5826,  0.00142514
 11.4239,  0.00153575
** ... 58 like lines cut
*Concrete Tension Stiffening
  1.16,          0.
  1.08,     3.6e-05
 0.975, 0.000140293
 0.905, 0.000244566
  0.84, 0.000348534
  0.78, 0.000452218
 0.724, 0.000555638
 0.672, 0.000658814
 0.624, 0.000761762
  0.58, 0.000864499
 0.538,  0.00096704
   0.5,   0.0010694
 0.464,  0.00117159
 0.431,  0.00127362
   0.4,  0.00137551
 0.366,  0.00147816
 0.332,  0.00158035
 0.299,  0.00168254
 0.266,  0.00178474
 0.232,  0.00188693
** ... 6 like lines cut
*Material, name=Steel
*Density
 7.8e-06,
*Elastic
200000., 0.3
*Plastic
280.,  0.
370., 0.1
** 
** BOUNDARY CONDITIONS
** 
** Name: BC-1 Type: Displacement/Rotation
*Boundary
_PickedSet52, 1, 1
_PickedSet52, 2, 2
_PickedSet52, 3, 3
_PickedSet52, 4, 4
_PickedSet52, 5, 5
_PickedSet52, 6, 6
** ----------------------------------------------------------------
** 
** STEP: Step-1
** 
*Step, name=Step-1, nlgeom=YES, inc=1000
*Static
0.01, 1., 1e-05, 0.1
** 
** LOADS
** 
** Name: Load-1   Type: Pressure
*Dsload
_PickedSurf53, P, 3.
** 
** OUTPUT REQUESTS
** 
*Restart, write, frequency=0
** 
** FIELD OUTPUT: F-Output-1
** 
*Output, field, variable=PRESELECT
** 
** HISTORY OUTPUT: H-Output-1
** 
*Output, history, variable=PRESELECT
*End Step
** ----------------------------------------------------------------
** 
** STEP: Step-2
** 
*Step, name=Step-2, nlgeom=YES, inc=1000
*Static
0.01, 1., 1e-05, 0.1
** 
** BOUNDARY CONDITIONS
** 
** Name: BC-2 Type: Displacement/Rotation
*Boundary
_PickedSet59, 2, 2, -200.
** 
** OUTPUT REQUESTS
** 
*Restart, write, frequency=0
** 
** FIELD OUTPUT: F-Output-1
** 
*Output, field, variable=PRESELECT
** 
** HISTORY OUTPUT: RF2
** 
*Output, history
*Node Output, nset=RF2
RF2, 
** 
** HISTORY OUTPUT: U2
** 
*Node Output, nset=U2
U2, 
** 
** HISTORY OUTPUT: H-Output-1
** 
*Output, history, variable=PRESELECT
*End Step
