*Heading
** Job name: Job-Cantilever1D_modes Model name: Model-1
** Generated by: Abaqus/CAE 2017
*Preprint, echo=NO, model=NO, history=NO, contact=NO
**
** PARTS
**
*Part, name=Part-Cantilever1D_modes
*End Part
**  
**
** ASSEMBLY
**
*Assembly, name=Assembly
**  
*Instance, name=Part-Cantilever1D_modes-1, part=Part-Cantilever1D_modes
*Node
      1,           0.,           0.
      2,  0.100000001,           0.
      3,  0.200000003,           0.
      4,  0.300000012,           0.
      5,  0.400000006,           0.
      6,          0.5,           0.
      7,  0.600000024,           0.
      8,  0.699999988,           0.
      9,  0.800000012,           0.
     10,  0.899999976,           0.
     11,           1.,           0.
     12,   1.10000002,           0.
     13,   1.20000005,           0.
     14,   1.29999995,           0.
     15,   1.39999998,           0.
     16,          1.5,           0.
     17,   1.60000002,           0.
     18,   1.70000005,           0.
     19,   1.79999995,           0.
     20,   1.89999998,           0.
** ... 81 like lines cut
*Element, type=B21
  1,   1,   2
  2,   2,   3
  3,   3,   4
  4,   4,   5
  5,   5,   6
  6,   6,   7
  7,   7,   8
  8,   8,   9
  9,   9,  10
 10,  10,  11
 11,  11,  12
 12,  12,  13
 13,  13,  14
 14,  14,  15
 15,  15,  16
 16,  16,  17
 17,  17,  18
 18,  18,  19
 19,  19,  20
 20,  20,  21
** ... 80 like lines cut
*Nset, nset=Set-1, generate
   1,  101,    1
*Elset, elset=Set-1, generate
   1,  100,    1
*Nset, nset=Set-2, generate
   1,  101,    1
*Elset, elset=Set-2, generate
   1,  100,    1
** Section: Section-Cantilever1D  Profile: Profile-Cantilever1D
*Beam Section, elset=Set-1, material=Material-Cantilever1D, temperature=GRADIENTS, section=RECT
0.1, 0.1
0.,0.,-1.
*End Instance
**  
*Nset, nset=Set-1, instance=Part-Cantilever1D_modes-1
 1,
*End Assembly
** 
** MATERIALS
** 
*Material, name=Material-Cantilever1D
*Density
2700.,
*Elastic
 7e+10, 0.3
** ----------------------------------------------------------------
** 
** STEP: Step-1
** 
*Step, name=Step-1, nlgeom=NO, perturbation
*Frequency, eigensolver=Lanczos, sim=NO, acoustic coupling=on, normalization=displacement
10, , , , , 
** 
** BOUNDARY CONDITIONS
** 
** Name: BC-fix Type: Symmetry/Antisymmetry/Encastre
*Boundary
Set-1, ENCASTRE
** 
** OUTPUT REQUESTS
** 
*Restart, write, frequency=0
** 
** FIELD OUTPUT: F-Output-1
** 
*Output, field, variable=PRESELECT
*End Step
