*Heading
** Job name: Job-Cantilever Model name: Model-1
** Generated by: Abaqus/CAE 2017
*Preprint, echo=NO, model=NO, history=NO, contact=NO
**
** PARTS
**
*Part, name=Part-Cantilever
*End Part
**  
**
** ASSEMBLY
**
*Assembly, name=Assembly
**  
*Instance, name=Part-Cantilever-1, part=Part-Cantilever
*Node
      1,           0.,           0.
      2,          20.,           0.
      3,          40.,           0.
      4,          60.,           0.
      5,          80.,           0.
      6,         100.,           0.
      7,         120.,           0.
      8,         140.,           0.
      9,         160.,           0.
     10,         180.,           0.
     11,         200.,           0.
     12,         220.,           0.
     13,         240.,           0.
     14,         260.,           0.
     15,         280.,           0.
     16,         300.,           0.
     17,         320.,           0.
     18,         340.,           0.
     19,         360.,           0.
     20,         380.,           0.
** ... 31 like lines cut
*Element, type=B21
 1,  1,  2
 2,  2,  3
 3,  3,  4
 4,  4,  5
 5,  5,  6
 6,  6,  7
 7,  7,  8
 8,  8,  9
 9,  9, 10
10, 10, 11
11, 11, 12
12, 12, 13
13, 13, 14
14, 14, 15
15, 15, 16
16, 16, 17
17, 17, 18
18, 18, 19
19, 19, 20
20, 20, 21
** ... 30 like lines cut
*Nset, nset=_PickedSet2, internal, generate
  1,  51,   1
*Elset, elset=_PickedSet2, internal, generate
  1,  50,   1
** Section: Section-Cantilever  Profile: Profile-Cantilever
*Beam Section, elset=_PickedSet2, material=Material-Cantilever, poisson = 0.3, temperature=GRADIENTS, section=RECT
50., 50.
0.,0.,-1.
*End Instance
**  
*Instance, name=Part-Cantilever-2, part=Part-Cantilever
*Node
      1,           0.,           0.
      2,          20.,           0.
      3,          40.,           0.
      4,          60.,           0.
      5,          80.,           0.
      6,         100.,           0.
      7,         120.,           0.
      8,         140.,           0.
      9,         160.,           0.
     10,         180.,           0.
     11,         200.,           0.
     12,         220.,           0.
     13,         240.,           0.
     14,         260.,           0.
     15,         280.,           0.
     16,         300.,           0.
     17,         320.,           0.
     18,         340.,           0.
     19,         360.,           0.
     20,         380.,           0.
** ... 31 like lines cut
*Element, type=B21
 1,  1,  2
 2,  2,  3
 3,  3,  4
 4,  4,  5
 5,  5,  6
 6,  6,  7
 7,  7,  8
 8,  8,  9
 9,  9, 10
10, 10, 11
11, 11, 12
12, 12, 13
13, 13, 14
14, 14, 15
15, 15, 16
16, 16, 17
17, 17, 18
18, 18, 19
19, 19, 20
20, 20, 21
** ... 30 like lines cut
*Nset, nset=_PickedSet2, internal, generate
  1,  51,   1
*Elset, elset=_PickedSet2, internal, generate
  1,  50,   1
** Section: Section-Cantilever  Profile: Profile-Cantilever
*Beam Section, elset=_PickedSet2, material=Material-Cantilever, poisson = 0.3, temperature=GRADIENTS, section=RECT
50., 50.
0.,0.,-1.
*End Instance
**  
*Nset, nset=_PickedSet6, internal, instance=Part-Cantilever-2
 1,
*Nset, nset=_PickedSet7, internal, instance=Part-Cantilever-2
 51,
*End Assembly
** 
** MATERIALS
** 
*Material, name=Material-Cantilever
*Elastic
200000., 0.3
** ----------------------------------------------------------------
** 
** STEP: Step-1
** 
*Step, name=Step-1, nlgeom=NO
*Static
1., 1., 1e-05, 1.
** 
** BOUNDARY CONDITIONS
** 
** Name: BC-fix Type: Symmetry/Antisymmetry/Encastre
*Boundary
_PickedSet6, ENCASTRE
** 
** LOADS
** 
** Name: Load-concentrate   Type: Concentrated force
*Cload
_PickedSet7, 2, -2500.
** 
** OUTPUT REQUESTS
** 
*Restart, write, frequency=0
** 
** FIELD OUTPUT: F-Output-1
** 
*Output, field, variable=PRESELECT
** 
** HISTORY OUTPUT: H-Output-1
** 
*Output, history, variable=PRESELECT
*End Step
