*Heading
** Job name: Job-2 Model name: Model-1
** Generated by: Abaqus/CAE 2017
*Preprint, echo=NO, model=NO, history=NO, contact=NO
**
** PARTS
**
*Part, name=Part-1
*Node
      1,         150.,          30.
      2,         150.,           0.
      3,         200.,           0.
      4,         200.,          30.
      5,          50.,           0.
      6,          50.,          30.
      7,           0.,          30.
      8,           0.,           0.
      9,         150.,          28.
     10,         150.,          26.
     11,         150.,          24.
     12,         150.,          22.
     13,         150.,          20.
     14,         150.,          18.
     15,         150.,          16.
     16,         150.,          14.
     17,         150.,          12.
     18,         150.,          10.
     19,         150.,           8.
     20,         150.,           6.
** ... 828 like lines cut
*Element, type=CPE4
 1,  1,  9, 36,  4
 2,  9, 10, 35, 36
 3, 10, 11, 34, 35
 4, 11, 12, 33, 34
 5, 12, 13, 32, 33
 6, 13, 14, 31, 32
 7, 14, 15, 30, 31
 8, 15, 16, 29, 30
 9, 16, 17, 28, 29
10, 17, 18, 27, 28
11, 18, 19, 26, 27
12, 19, 20, 25, 26
13, 20, 21, 24, 25
14, 21, 22, 23, 24
15, 22,  2,  3, 23
16,  5, 37, 64,  8
17, 37, 38, 63, 64
18, 38, 39, 62, 63
19, 39, 40, 61, 62
20, 40, 41, 60, 61
** ... 10 like lines cut
*Element, type=CPE4R
 31,   6,  50, 163, 162
 32,  50,  49, 164, 163
 33,  49,  48, 165, 164
 34,  48,  47, 166, 165
 35,  47,  46, 167, 166
 36,  46,  45, 168, 167
 37,  45,  44, 169, 168
 38,  44,  43, 170, 169
 39,  43,  42, 171, 170
 40,  42,  41, 172, 171
 41,  41,  40, 173, 172
 42,  40,  39, 174, 173
 43,  39,  38, 175, 174
 44,  38,  37, 176, 175
 45,  37,   5,  65, 176
 46, 162, 163, 177, 161
 47, 163, 164, 178, 177
 48, 164, 165, 179, 178
 49, 165, 166, 180, 179
 50, 166, 167, 181, 180
** ... 730 like lines cut
*Nset, nset=Set-1, generate
   1,  848,    1
*Elset, elset=Set-1, generate
   1,  780,    1
** Section: Section-1
*Solid Section, elset=Set-1, material=Material-1
,
*End Part
**  
**
** ASSEMBLY
**
*Assembly, name=Assembly
**  
*Instance, name=Part-1-1, part=Part-1
*End Instance
**  
*Nset, nset=Set-1, instance=Part-1-1
   2,   5,  65,  66,  67,  68,  69,  70,  71,  72,  73,  74,  75,  76,  77,  78
  79,  80,  81,  82,  83,  84,  85,  86,  87,  88,  89,  90,  91,  92,  93,  94
  95,  96,  97,  98,  99, 100, 101, 102, 103, 104, 105, 106, 107, 108, 109, 110
 111, 112, 113
*Elset, elset=Set-1, instance=Part-1-1, generate
  45,  780,   15
*Nset, nset=Set-2, instance=Part-1-1
   2,   5,  65,  66,  67,  68,  69,  70,  71,  72,  73,  74,  75,  76,  77,  78
  79,  80,  81,  82,  83,  84,  85,  86,  87,  88,  89,  90,  91,  92,  93,  94
  95,  96,  97,  98,  99, 100, 101, 102, 103, 104, 105, 106, 107, 108, 109, 110
 111, 112, 113
*Elset, elset=Set-2, instance=Part-1-1, generate
  45,  780,   15
*End Assembly
*Amplitude, name=Amp-1
             0.,              0.,            0.02,          0.0052,            0.04,          0.0042,            0.06,          0.0032
           0.08,          0.0023,             0.1,          0.0017,            0.12,          0.0045,            0.14,          0.0073
           0.16,          0.0071,            0.18,          0.0047,             0.2,          0.0022,            0.22,         -0.0003
           0.24,          0.0048,            0.26,            0.01,            0.28,          0.0143,             0.3,          0.0111
           0.32,          0.0079,            0.34,          0.0046,            0.36,          0.0014,            0.38,         -0.0018
            0.4,         -0.0025,            0.42,          0.0045,            0.44,          0.0114,            0.46,          0.0173
           0.48,          0.0043,             0.5,         -0.0088,            0.52,         -0.0218,            0.54,         -0.0104
           0.56,          0.0084,            0.58,            0.01,             0.6,          0.0121,            0.62,          0.0186
           0.64,           0.025,            0.66,          0.0293,            0.68,          0.0144,             0.7,          0.0105
           0.72,          0.0102,            0.74,          0.0098,            0.76,          0.0034,            0.78,         -0.0079
            0.8,         -0.0193,            0.82,         -0.0322,            0.84,         -0.0339,            0.86,         -0.0385
           0.88,         -0.0506,             0.9,         -0.0615,            0.92,         -0.0528,            0.94,         -0.0443
           0.96,         -0.0357,            0.98,          -0.027,              1.,         -0.0368,            1.02,         -0.0476
           1.04,         -0.0585,            1.06,         -0.0704,            1.08,         -0.0823,             1.1,         -0.0775
           1.12,         -0.0697,            1.14,         -0.0519,            1.16,         -0.0428,            1.18,         -0.0253
            1.2,          0.0312,            1.22,          0.0878,            1.24,          0.0687,            1.26,          0.0457
           1.28,          0.0227,             1.3,          0.0006,            1.32,         -0.0177,            1.34,         -0.0361
           1.36,         -0.0545,            1.38,         -0.0754,             1.4,          -0.102,            1.42,         -0.1295
           1.44,          -0.156,            1.46,         -0.1652,            1.48,         -0.1336,             1.5,          -0.103
           1.52,          -0.092,            1.54,         -0.0988,            1.56,         -0.0959,            1.58,         -0.0929
** ... 981 like lines cut
** 
** MATERIALS
** 
*Material, name=Material-1
*Damping, alpha=1.36591, beta=0.00125
*Density
1500.,
*Elastic
 6e+07, 0.3
** 
** BOUNDARY CONDITIONS
** 
** Name: BC-1 Type: Displacement/Rotation
*Boundary
Set-1, 1, 1
Set-1, 2, 2
Set-1, 6, 6
** ----------------------------------------------------------------
** 
** STEP: Step-1
** 
*Step, name=Step-1, nlgeom=NO, inc=2000
*Dynamic
0.02,40.,0.0004
** 
** BOUNDARY CONDITIONS
** 
** Name: BC-1 Type: Displacement/Rotation
*Boundary, op=NEW
Set-1, 2, 2
Set-1, 6, 6
** Name: BC-2 Type: Acceleration/Angular acceleration
*Boundary, op=NEW, amplitude=Amp-1, type=ACCELERATION
Set-2, 1, 1, 9.81
** 
** OUTPUT REQUESTS
** 
*Restart, write, frequency=0
** 
** FIELD OUTPUT: F-Output-1
** 
*Output, field, time interval=0.02
*Node Output
A, AR, AT, U, UR, UT, V, VR
VT
** 
** HISTORY OUTPUT: H-Output-1
** 
*Output, history, time interval=0.02
*Element Output
IRA1, IRA2, IRA3, IRAR1, IRAR2, IRAR3
*Modal Output
GA, GV
*End Step
