*Heading
** Job name: HolePlate Model name: Model-1
** Generated by: Abaqus/CAE 2017
*Preprint, echo=NO, model=NO, history=NO, contact=NO
**
** PARTS
**
*Part, name=Part-1
*End Part
**  
**
** ASSEMBLY
**
*Assembly, name=Assembly
**  
*Instance, name=Part-1-1, part=Part-1
*Node
      1,           0.,   3.47222233
      2,           0.,          2.5
      3,   1.76776695,   1.76776695
      4,   2.57829428,   2.57878613
      5,          2.5,           0.
      6,   3.47222233,           0.
      7,          20.,           0.
      8,          20.,           3.
      9,          20.,          20.
     10,           3.,          20.
     11,           0.,          20.
     12,  0.647047639,   2.41481447
     13,         1.25,   2.16506362
     14,   1.59782183,   3.02563715
     15,   0.76904285,     3.313097
     16,   2.16506362,         1.25
     17,   2.41481447,  0.647047639
     18,   3.30755854,  0.762823105
     19,   3.02017212,   1.59586728
     20,   4.44444466,           0.
** ... 419 like lines cut
*Element, type=CPS4R
  1,   1,   2,  12,  15
  2,  15,  12,  13,  14
  3,  14,  13,   3,   4
  4,   3,  16,  19,   4
  5,  16,  17,  18,  19
  6,  17,   5,   6,  18
  7,   6,  20, 120,  18
  8,  20,  21, 121, 120
  9,  21,  22, 122, 121
 10,  22,  23, 123, 122
 11,  23,  24, 124, 123
 12,  24,  25, 125, 124
 13,  25,  26, 126, 125
 14,  26,  27, 127, 126
 15,  27,  28, 128, 127
 16,  28,  29, 129, 128
 17,  29,  30, 130, 129
 18,  30,  31, 131, 130
 19,  31,  32, 132, 131
 20,  32,  33, 133, 132
** ... 377 like lines cut
*Nset, nset=Set-1, generate
   1,  439,    1
*Elset, elset=Set-1, generate
   1,  397,    1
** Section: Section-1
*Solid Section, elset=Set-1, material=Material-1
,
*End Instance
**  
*Nset, nset=Set-1, instance=Part-1-1
   1,   2,  11, 104, 105, 106, 107, 108, 109, 110, 111, 112, 113, 114, 115, 116
 117, 118, 119
*Elset, elset=Set-1, instance=Part-1-1
   1, 349, 352, 355, 358, 361, 364, 367, 370, 373, 376, 379, 382, 385, 388, 391
 394, 397
*Nset, nset=Set-2, instance=Part-1-1
  5,  6,  7, 20, 21, 22, 23, 24, 25, 26, 27, 28, 29, 30, 31, 32
 33, 34, 35
*Elset, elset=Set-2, instance=Part-1-1, generate
  6,  23,   1
*Elset, elset=_Surf-1_S2, internal, instance=Part-1-1, generate
 23,  57,  17
*Elset, elset=_Surf-1_S1, internal, instance=Part-1-1, generate
 58,  74,   1
*Surface, type=ELEMENT, name=Surf-1
_Surf-1_S2, S2
_Surf-1_S1, S1
*End Assembly
** 
** MATERIALS
** 
*Material, name=Material-1
*Elastic
200000., 0.3
** ----------------------------------------------------------------
** 
** STEP: Step-1
** 
*Step, name=Step-1, nlgeom=YES, inc=1000
*Static
0.5, 1., 1e-05, 1.
** 
** BOUNDARY CONDITIONS
** 
** Name: BC-1 Type: Symmetry/Antisymmetry/Encastre
*Boundary
Set-1, XSYMM
** Name: BC-2 Type: Symmetry/Antisymmetry/Encastre
*Boundary
Set-2, YSYMM
** 
** LOADS
** 
** Name: Load-1   Type: Pressure
*Dsload
Surf-1, P, -1.
** 
** OUTPUT REQUESTS
** 
*Restart, write, frequency=0
** 
** FIELD OUTPUT: F-Output-1
** 
*Output, field, variable=PRESELECT
** 
** HISTORY OUTPUT: H-Output-1
** 
*Output, history, variable=PRESELECT
*End Step
