*Heading
** Job name: Job-CantileverTransient Model name: Model-1
** Generated by: Abaqus/CAE 2017
*Preprint, echo=NO, model=NO, history=NO, contact=NO
**
** PARTS
**
*Part, name=Part-Cantilever3D
*Node
      1,          -5.,          -5.,         200.
      2,          -5.,         -2.5,         200.
      3,          -5.,           0.,         200.
      4,          -5.,          2.5,         200.
      5,          -5.,           5.,         200.
      6,          -5.,          -5.,        197.5
      7,          -5.,         -2.5,        197.5
      8,          -5.,           0.,        197.5
      9,          -5.,          2.5,        197.5
     10,          -5.,           5.,        197.5
     11,          -5.,          -5.,         195.
     12,          -5.,         -2.5,         195.
     13,          -5.,           0.,         195.
     14,          -5.,          2.5,         195.
     15,          -5.,           5.,         195.
     16,          -5.,          -5.,        192.5
     17,          -5.,         -2.5,        192.5
     18,          -5.,           0.,        192.5
     19,          -5.,          2.5,        192.5
     20,          -5.,           5.,        192.5
** ... 2005 like lines cut
*Element, type=C3D8R
   1,  406,  407,  412,  411,    1,    2,    7,    6
   2,  407,  408,  413,  412,    2,    3,    8,    7
   3,  408,  409,  414,  413,    3,    4,    9,    8
   4,  409,  410,  415,  414,    4,    5,   10,    9
   5,  411,  412,  417,  416,    6,    7,   12,   11
   6,  412,  413,  418,  417,    7,    8,   13,   12
   7,  413,  414,  419,  418,    8,    9,   14,   13
   8,  414,  415,  420,  419,    9,   10,   15,   14
   9,  416,  417,  422,  421,   11,   12,   17,   16
  10,  417,  418,  423,  422,   12,   13,   18,   17
  11,  418,  419,  424,  423,   13,   14,   19,   18
  12,  419,  420,  425,  424,   14,   15,   20,   19
  13,  421,  422,  427,  426,   16,   17,   22,   21
  14,  422,  423,  428,  427,   17,   18,   23,   22
  15,  423,  424,  429,  428,   18,   19,   24,   23
  16,  424,  425,  430,  429,   19,   20,   25,   24
  17,  426,  427,  432,  431,   21,   22,   27,   26
  18,  427,  428,  433,  432,   22,   23,   28,   27
  19,  428,  429,  434,  433,   23,   24,   29,   28
  20,  429,  430,  435,  434,   24,   25,   30,   29
** ... 1260 like lines cut
*Nset, nset=_PickedSet2, internal, generate
    1,  2025,     1
*Elset, elset=_PickedSet2, internal, generate
    1,  1280,     1
** Section: Section-Solid
*Solid Section, elset=_PickedSet2, material=Material-Steel
,
*End Part
**  
**
** ASSEMBLY
**
*Assembly, name=Assembly
**  
*Instance, name=Part-Cantilever3D-1, part=Part-Cantilever3D
*End Instance
**  
*Instance, name=Part-Cantilever3D-2, part=Part-Cantilever3D
*End Instance
**  
*Node
      1,           0.,           0.,         220.
*Nset, nset=_PickedSet8, internal
 1,
*Nset, nset=_PickedSet9, internal
 1,
*Nset, nset=_PickedSet10, internal
 1,
*Nset, nset=_PickedSet11, internal, instance=Part-Cantilever3D-2
  401,  402,  403,  404,  405,  806,  807,  808,  809,  810, 1211, 1212, 1213, 1214, 1215, 1616
 1617, 1618, 1619, 1620, 2021, 2022, 2023, 2024, 2025
*Elset, elset=_PickedSet11, internal, instance=Part-Cantilever3D-2
  317,  318,  319,  320,  637,  638,  639,  640,  957,  958,  959,  960, 1277, 1278, 1279, 1280
*Elset, elset=__PickedSurf7_S3, internal, instance=Part-Cantilever3D-2
   1,   2,   3,   4, 321, 322, 323, 324, 641, 642, 643, 644, 961, 962, 963, 964
*Surface, type=ELEMENT, name=_PickedSurf7, internal
__PickedSurf7_S3, S3
** Constraint: Constraint-MPC
*Coupling, constraint name=Constraint-MPC, ref node=_PickedSet8, surface=_PickedSurf7
*Kinematic
*End Assembly
*Amplitude, name=Amp-Transient
             0.,              0.,              1.,            100.,              2.,           -200.,              3.,           -400.
             4.,              0.,              5.,            150.,              6.,            125.,              7.,            -50.
             8.,             60.,              9.,            -54.,             10.,             90.
** 
** MATERIALS
** 
*Material, name=Material-Steel
*Elastic
200000., 0.3
** 
** BOUNDARY CONDITIONS
** 
** Name: BC-Fix Type: Displacement/Rotation
*Boundary
_PickedSet11, 1, 1
_PickedSet11, 2, 2
_PickedSet11, 3, 3
_PickedSet11, 4, 4
_PickedSet11, 5, 5
_PickedSet11, 6, 6
** Name: BC-MPC Type: Displacement/Rotation
*Boundary
_PickedSet10, 1, 1
_PickedSet10, 3, 3
_PickedSet10, 4, 4
_PickedSet10, 5, 5
_PickedSet10, 6, 6
** ----------------------------------------------------------------
** 
** STEP: Step-Transient
** 
*Step, name=Step-Transient, nlgeom=NO
*Static
1., 10., 0.0001, 10.
** 
** LOADS
** 
** Name: Load-Transient   Type: Concentrated force
*Cload, amplitude=Amp-Transient
_PickedSet9, 2, 1.
** 
** OUTPUT REQUESTS
** 
*Restart, write, frequency=0
** 
** FIELD OUTPUT: F-Output-1
** 
*Output, field, variable=PRESELECT
** 
** HISTORY OUTPUT: H-Output-1
** 
*Output, history, variable=PRESELECT
*End Step
