*Heading
** Job name: Job-1 Model name: Model-1
** Generated by: Abaqus/CAE 2017
*Preprint, echo=NO, model=NO, history=NO, contact=NO
**
** PARTS
**
*Part, name=Pipe
*Node
      1,           0.,           6.
      2,  0.324833453,   5.99120045
      3,  0.648714125,   5.96482754
      4,  0.970691979,     5.920959
      5,    1.2898227,   5.85972357
      6,   1.60517001,   5.78130007
      7,   1.91580915,   5.68591881
      8,   2.22082901,   5.57386017
      9,   2.51933455,   5.44545269
     10,   2.81045055,   5.30107212
     11,   3.09332323,   5.14114285
     12,   3.36712241,   4.96613407
     13,   3.63104534,    4.7765584
     14,   3.88431764,    4.5729723
     15,   4.12619686,   4.35597277
     16,   4.35597277,   4.12619686
     17,    4.5729723,   3.88431764
     18,    4.7765584,   3.63104534
     19,   4.96613407,   3.36712241
     20,   5.14114285,   3.09332323
** ... 370 like lines cut
*Element, type=CPE4R
  1,   1,   2,  32,  31
  2,   2,   3,  33,  32
  3,   3,   4,  34,  33
  4,   4,   5,  35,  34
  5,   5,   6,  36,  35
  6,   6,   7,  37,  36
  7,   7,   8,  38,  37
  8,   8,   9,  39,  38
  9,   9,  10,  40,  39
 10,  10,  11,  41,  40
 11,  11,  12,  42,  41
 12,  12,  13,  43,  42
 13,  13,  14,  44,  43
 14,  14,  15,  45,  44
 15,  15,  16,  46,  45
 16,  16,  17,  47,  46
 17,  17,  18,  48,  47
 18,  18,  19,  49,  48
 19,  19,  20,  50,  49
 20,  20,  21,  51,  50
** ... 328 like lines cut
*Nset, nset=_PickedSet2, internal, generate
   1,  390,    1
*Elset, elset=_PickedSet2, internal, generate
   1,  348,    1
** Section: Section-1
*Solid Section, elset=_PickedSet2, material=Steel
,
*End Part
**  
**
** ASSEMBLY
**
*Assembly, name=Assembly
**  
*Instance, name=Pipe-1, part=Pipe
*End Instance
**  
*Nset, nset=_PickedSet5, internal, instance=Pipe-1, generate
  30,  390,   30
*Elset, elset=_PickedSet5, internal, instance=Pipe-1, generate
  29,  348,   29
*Nset, nset=_PickedSet6, internal, instance=Pipe-1, generate
   1,  361,   30
*Elset, elset=_PickedSet6, internal, instance=Pipe-1, generate
   1,  320,   29
*Elset, elset=__PickedSurf4_S1, internal, instance=Pipe-1, generate
  1,  29,   1
*Surface, type=ELEMENT, name=_PickedSurf4, internal
__PickedSurf4_S1, S1
*End Assembly
** 
** MATERIALS
** 
*Material, name=Steel
*Elastic
210000., 0.3
** ----------------------------------------------------------------
** 
** STEP: Step-1
** 
*Step, name=Step-1, nlgeom=NO
*Static
0.1, 1., 1e-05, 1.
** 
** BOUNDARY CONDITIONS
** 
** Name: BC-1 Type: Symmetry/Antisymmetry/Encastre
*Boundary
_PickedSet5, YSYMM
** Name: BC-2 Type: Symmetry/Antisymmetry/Encastre
*Boundary
_PickedSet6, XSYMM
** 
** LOADS
** 
** Name: Load-1   Type: Pressure
*Dsload
_PickedSurf4, P, 15.
** 
** OUTPUT REQUESTS
** 
*Restart, write, frequency=0
** 
** FIELD OUTPUT: F-Output-1
** 
*Output, field, variable=PRESELECT
** 
** HISTORY OUTPUT: H-Output-1
** 
*Output, history, variable=PRESELECT
*End Step
