*Heading
** Job name: Job-1 Model name: Model-1
** Generated by: Abaqus/CAE 2017
*Preprint, echo=NO, model=NO, history=NO, contact=NO
**
** PARTS
**
*Part, name=Part-1
*Node
      1,           0.,           0.
      2,           2.,           0.
      3,           4.,           0.
      4,           6.,           0.
      5,           8.,           0.
      6,          10.,           0.
      7,          12.,           0.
      8,          14.,           0.
      9,          16.,           0.
     10,          18.,           0.
     11,          20.,           0.
     12,          22.,           0.
     13,          24.,           0.
     14,          26.,           0.
     15,          28.,           0.
     16,          30.,           0.
     17,          32.,           0.
     18,          34.,           0.
     19,          36.,           0.
     20,          38.,           0.
** ... 796 like lines cut
*Element, type=CPE4R
  1,   1,   2,  53,  52
  2,   2,   3,  54,  53
  3,   3,   4,  55,  54
  4,   4,   5,  56,  55
  5,   5,   6,  57,  56
  6,   6,   7,  58,  57
  7,   7,   8,  59,  58
  8,   8,   9,  60,  59
  9,   9,  10,  61,  60
 10,  10,  11,  62,  61
 11,  11,  12,  63,  62
 12,  12,  13,  64,  63
 13,  13,  14,  65,  64
 14,  14,  15,  66,  65
 15,  15,  16,  67,  66
 16,  16,  17,  68,  67
 17,  17,  18,  69,  68
 18,  18,  19,  70,  69
 19,  19,  20,  71,  70
 20,  20,  21,  72,  71
** ... 730 like lines cut
*Nset, nset=Set-1, generate
   1,  816,    1
*Elset, elset=Set-1, generate
   1,  750,    1
** Section: Section-1
*Solid Section, elset=Set-1, material=Material-1
,
*End Part
**  
**
** ASSEMBLY
**
*Assembly, name=Assembly
**  
*Instance, name=Part-1-1, part=Part-1
*End Instance
**  
*Nset, nset=Set-1, instance=Part-1-1, generate
  1,  51,   1
*Elset, elset=Set-1, instance=Part-1-1, generate
  1,  50,   1
*Nset, nset=Set-2, instance=Part-1-1, generate
  1,  51,   1
*Elset, elset=Set-2, instance=Part-1-1, generate
  1,  50,   1
*End Assembly
*Amplitude, name=Amp-1
             0.,              0.,            0.02,          0.0052,            0.04,          0.0042,            0.06,          0.0032
           0.08,          0.0023,             0.1,          0.0017,            0.12,          0.0045,            0.14,          0.0073
           0.16,          0.0071,            0.18,          0.0047,             0.2,          0.0022,            0.22,         -0.0003
           0.24,          0.0048,            0.26,            0.01,            0.28,          0.0143,             0.3,          0.0111
           0.32,          0.0079,            0.34,          0.0046,            0.36,          0.0014,            0.38,         -0.0018
            0.4,         -0.0025,            0.42,          0.0045,            0.44,          0.0114,            0.46,          0.0173
           0.48,          0.0043,             0.5,         -0.0088,            0.52,         -0.0218,            0.54,         -0.0104
           0.56,          0.0084,            0.58,            0.01,             0.6,          0.0121,            0.62,          0.0186
           0.64,           0.025,            0.66,          0.0293,            0.68,          0.0144,             0.7,          0.0105
           0.72,          0.0102,            0.74,          0.0098,            0.76,          0.0034,            0.78,         -0.0079
            0.8,         -0.0193,            0.82,         -0.0322,            0.84,         -0.0339,            0.86,         -0.0385
           0.88,         -0.0506,             0.9,         -0.0615,            0.92,         -0.0528,            0.94,         -0.0443
           0.96,         -0.0357,            0.98,          -0.027,              1.,         -0.0368,            1.02,         -0.0476
           1.04,         -0.0585,            1.06,         -0.0704,            1.08,         -0.0823,             1.1,         -0.0775
           1.12,         -0.0697,            1.14,         -0.0519,            1.16,         -0.0428,            1.18,         -0.0253
            1.2,          0.0312,            1.22,          0.0878,            1.24,          0.0687,            1.26,          0.0457
           1.28,          0.0227,             1.3,          0.0006,            1.32,         -0.0177,            1.34,         -0.0361
           1.36,         -0.0545,            1.38,         -0.0754,             1.4,          -0.102,            1.42,         -0.1295
           1.44,          -0.156,            1.46,         -0.1652,            1.48,         -0.1336,             1.5,          -0.103
           1.52,          -0.092,            1.54,         -0.0988,            1.56,         -0.0959,            1.58,         -0.0929
** ... 981 like lines cut
** 
** MATERIALS
** 
*Material, name=Material-1
*Damping, alpha=1.365, beta=0.001
*Density
1500.,
*Elastic
 6e+07, 0.3
** 
** BOUNDARY CONDITIONS
** 
** Name: BC-1 Type: Displacement/Rotation
*Boundary
Set-1, 1, 1
Set-1, 2, 2
Set-1, 6, 6
** ----------------------------------------------------------------
** 
** STEP: Step-1
** 
*Step, name=Step-1, nlgeom=NO, inc=2000
*Dynamic
0.02,40.,0.0004
** 
** BOUNDARY CONDITIONS
** 
** Name: BC-1 Type: Displacement/Rotation
*Boundary, op=NEW
Set-1, 2, 2
Set-1, 6, 6
** Name: BC-2 Type: Acceleration/Angular acceleration
*Boundary, op=NEW, amplitude=Amp-1, type=ACCELERATION
Set-2, 1, 1, 9.81
** 
** OUTPUT REQUESTS
** 
*Restart, write, frequency=0
** 
** FIELD OUTPUT: F-Output-1
** 
*Output, field, variable=PRESELECT, time interval=0.02
** 
** HISTORY OUTPUT: H-Output-1
** 
*Output, history, time interval=0.02
*Element Output
IRA1, IRA2, IRA3, IRAR1, IRAR2, IRAR3
*Modal Output
GA, GV
*Energy Output
ALLAE, ALLCD, ALLDMD, ALLEE, ALLFD, ALLIE, ALLJD, ALLKE, ALLKL, ALLPD, ALLQB, ALLSD, ALLSE, ALLVD, ALLWK, ETOTAL
*End Step
